Version 4
SHEET 1 1908 1336
WIRE 208 80 208 32
WIRE 128 128 80 128
WIRE 368 128 288 128
WIRE -544 144 -544 96
WIRE -400 160 -400 112
WIRE -256 160 -256 112
WIRE 128 192 80 192
WIRE 368 192 288 192
WIRE -544 256 -544 224
WIRE -400 272 -400 240
WIRE -256 272 -256 240
FLAG -256 272 0
FLAG -256 112 vdd
IOPIN -256 112 In
FLAG 208 32 vdd
IOPIN 208 32 In
FLAG 368 128 up
IOPIN 368 128 Out
FLAG 368 192 dn
IOPIN 368 192 Out
FLAG 80 128 fref
IOPIN 80 128 In
FLAG 80 192 fdiv
IOPIN 80 192 In
FLAG -400 272 0
FLAG -544 96 fref
IOPIN -544 96 In
FLAG -544 256 0
FLAG -400 112 fdiv
IOPIN -400 112 In
SYMBOL pfd_nand 208 160 R0
SYMATTR InstName X1
SYMBOL voltage -256 144 R0
WINDOW 123 0 0 Left 0
WINDOW 39 0 0 Left 0
SYMATTR InstName V1
SYMATTR Value 1.5
SYMBOL voltage -400 144 R0
WINDOW 3 73 -169 VRight 2
WINDOW 123 0 0 Left 0
WINDOW 39 0 0 Left 0
SYMATTR InstName V2
SYMATTR Value PULSE(0 1.5 0 0.01p 0.01p 5n 10n)
SYMBOL voltage -544 128 R0
WINDOW 3 -60 -147 VRight 2
WINDOW 123 0 0 Left 0
WINDOW 39 0 0 Left 0
SYMATTR InstName V3
SYMATTR Value PULSE(0 1.5 3n 0.01p 0.01p 5n 10n)
TEXT -464 -88 Left 2 !.include CMOS180.TXT
TEXT -464 -56 Left 2 !.OP
TEXT -464 -24 Left 2 !.tran 50n
