Version 4
SHEET 1 1372 1140
WIRE -720 32 -720 -16
WIRE -592 32 -592 -16
WIRE -720 208 -720 112
WIRE -592 208 -592 112
WIRE 16 256 16 224
WIRE -64 304 -192 304
WIRE 304 304 96 304
WIRE -64 368 -192 368
WIRE 304 368 96 368
WIRE -800 400 -864 400
WIRE -864 416 -864 400
WIRE -800 496 -800 400
WIRE -784 496 -800 496
WIRE -608 528 -640 528
WIRE -688 704 -704 704
FLAG -720 208 0
FLAG -592 208 0
FLAG -720 -16 vdd
FLAG -784 592 0
FLAG -864 496 0
FLAG -688 784 0
FLAG -608 528 out
FLAG -704 704 Fdiv
FLAG -592 -16 Fref
FLAG -192 304 Fref
FLAG -192 368 Fdiv
FLAG 16 224 vdd
FLAG 304 304 UP
FLAG 304 368 DN
SYMBOL voltage -720 16 R0
WINDOW 0 -41 9 Left 2
WINDOW 123 0 0 Left 0
WINDOW 39 0 0 Left 0
SYMATTR InstName V1
SYMATTR Value 1.5
SYMBOL voltage -592 16 R0
WINDOW 0 -37 8 Left 2
WINDOW 3 52 -93 VRight 2
WINDOW 123 0 0 Left 0
WINDOW 39 0 0 Left 0
SYMATTR InstName V2
SYMATTR Value PULSE(0 1.5 3u 1n 1n 10u 20u)
SYMBOL SpecialFunctions\\modulate -784 496 R0
WINDOW 3 16 -20 Left 2
SYMATTR Value mark=30k space=0
SYMATTR InstName A1
SYMBOL voltage -864 400 R0
WINDOW 123 0 0 Left 0
WINDOW 39 0 0 Left 0
WINDOW 3 24 96 Invisible 2
SYMATTR Value PWL(0 0 10u 0 200us 3 400us .5 600u 2 800u 0)
SYMATTR InstName V4
SYMBOL bv -688 688 R0
SYMATTR InstName B1
SYMATTR Value V=if(V(out)>0,1.5,0)
SYMBOL pfd_nand 16 336 R0
SYMATTR InstName X1
TEXT -776 -168 Left 2 !.include CMOS180.txt
TEXT -776 -216 Left 2 !.op
TEXT -776 -192 Left 2 !.tran 800u
