Version 4
SHEET 1 1948 680
WIRE 1008 64 1008 32
WIRE 1008 80 1008 64
WIRE 944 112 848 112
WIRE 1136 112 1072 112
WIRE 432 128 432 96
WIRE 576 128 576 96
WIRE 1136 144 1136 112
WIRE 304 176 304 144
WIRE 944 176 848 176
WIRE 1104 176 1072 176
WIRE 1104 208 1104 176
WIRE 432 304 432 208
WIRE 576 304 576 208
WIRE 304 352 304 256
FLAG 432 304 0
FLAG 576 304 0
FLAG 576 96 in
FLAG 432 96 clk
FLAG 848 112 in
FLAG 848 176 clk
FLAG 1136 144 out
FLAG 304 352 0
FLAG 304 144 Vdd
IOPIN 304 144 In
FLAG 1008 32 Vdd
IOPIN 1008 32 In
FLAG 1104 208 outbar
SYMBOL voltage 432 112 R0
WINDOW 3 54 45 VRight 2
WINDOW 123 0 0 Left 0
WINDOW 39 0 0 Left 0
SYMATTR Value PULSE(0 1.5 0 10p 10p 1u 2u)
SYMATTR InstName V2
SYMBOL voltage 576 112 R0
WINDOW 3 51 47 VRight 2
WINDOW 123 0 0 Left 0
WINDOW 39 0 0 Left 0
SYMATTR Value PULSE(0 1.5 1u 10p 10p 2u 4u)
SYMATTR InstName V3
SYMBOL dff_sym 1008 144 R0
SYMATTR InstName X1
SYMBOL voltage 304 160 R0
WINDOW 123 0 0 Left 0
WINDOW 39 0 0 Left 0
SYMATTR InstName V1
SYMATTR Value 1.5
TEXT 936 416 Left 2 !.tran 8u
TEXT 936 456 Left 2 !.INCLUDE CMOS180.txt
TEXT 936 384 Left 2 !.op
