Version 4
SHEET 1 3140 684
WIRE -48 -176 -64 -176
WIRE 272 -176 -48 -176
WIRE 544 -176 272 -176
WIRE -48 -128 -48 -176
WIRE 272 -128 272 -176
WIRE 544 -128 544 -176
WIRE -112 -80 -272 -80
WIRE 208 -80 16 -80
WIRE 480 -80 336 -80
WIRE 656 -80 608 -80
WIRE -640 -16 -640 -48
WIRE -112 -16 -176 -16
WIRE 208 -16 144 -16
WIRE 480 -16 432 -16
WIRE 640 -16 608 -16
WIRE -480 32 -480 0
WIRE -272 80 -272 -80
WIRE 640 80 640 -16
WIRE 640 80 -272 80
WIRE 64 144 48 144
WIRE 384 144 64 144
WIRE -640 160 -640 64
WIRE 64 192 64 144
WIRE 384 192 384 144
WIRE -480 208 -480 112
WIRE 0 240 -160 240
WIRE 320 240 128 240
WIRE 512 240 448 240
WIRE 0 304 -64 304
WIRE 320 304 256 304
WIRE 480 304 448 304
WIRE -160 400 -160 240
WIRE 480 400 480 304
WIRE 480 400 -160 400
FLAG -480 208 0
FLAG -480 0 Vdd
IOPIN -480 0 In
FLAG -64 -176 Vdd
IOPIN -64 -176 In
FLAG -176 -16 clk
FLAG 144 -16 clk
FLAG 432 -16 clk
FLAG 656 -80 q1
FLAG -640 160 0
FLAG -640 -48 clk
FLAG 48 144 Vdd
IOPIN 48 144 In
FLAG -64 304 q1
FLAG 512 240 out
IOPIN 512 240 Out
FLAG 256 304 q1
SYMBOL voltage -480 16 R0
WINDOW 123 0 0 Left 0
WINDOW 39 0 0 Left 0
SYMATTR InstName V1
SYMATTR Value 1.5
SYMBOL dff_sym -48 -48 R0
SYMATTR InstName X4
SYMBOL dff_sym 272 -48 R0
SYMATTR InstName X5
SYMBOL dff_sym 544 -48 R0
SYMATTR InstName X7
SYMBOL voltage -640 -32 R0
WINDOW 3 74 -71 VRight 2
WINDOW 123 0 0 Left 0
WINDOW 39 0 0 Left 0
SYMATTR Value PULSE(0 1.5 0 2p 2p 208p 416p)
SYMATTR InstName V3
SYMBOL dff_sym 64 272 R0
SYMATTR InstName X1
SYMBOL dff_sym 384 272 R0
SYMATTR InstName X2
TEXT -696 -160 Left 2 !.INCLUDE CMOS180.txt
TEXT -688 -192 Left 2 !.tran 25n
TEXT -680 -216 Left 2 !.op
