Version 4
SHEET 1 5428 1300
WIRE 592 -1072 592 -1104
WIRE 912 -1056 912 -1104
WIRE 1232 -1040 1232 -1104
WIRE 512 -1024 384 -1024
WIRE 736 -1024 672 -1024
WIRE 832 -1024 736 -1024
WIRE 1072 -992 1008 -992
WIRE 1136 -992 1072 -992
WIRE 1488 -992 1328 -992
WIRE 1568 -992 1488 -992
WIRE 512 -960 384 -960
WIRE 736 -960 672 -960
WIRE 832 -960 736 -960
WIRE -16 -896 -16 -944
WIRE 176 -864 176 -928
WIRE 928 -752 928 -768
WIRE 176 -736 176 -784
WIRE -16 -720 -16 -816
WIRE 384 -704 384 -960
WIRE 480 -704 384 -704
WIRE 864 -704 480 -704
WIRE 1488 -704 1488 -992
WIRE 1488 -704 992 -704
FLAG 176 -736 0
FLAG 176 -928 Vdd
IOPIN 176 -928 In
FLAG 1232 -1104 Vdd
IOPIN 1232 -1104 In
FLAG 928 -768 Vdd
IOPIN 928 -768 In
FLAG 1568 -992 clk
IOPIN 1568 -992 Out
FLAG -16 -720 0
FLAG -16 -944 Fref
IOPIN -16 -944 In
FLAG 912 -1104 Vdd
IOPIN 912 -1104 In
FLAG 384 -1024 Fref
FLAG 592 -1104 Vdd
IOPIN 592 -1104 In
FLAG 736 -1024 Vup
FLAG 736 -960 Vdn
FLAG 1072 -992 Vcntrl
FLAG 480 -704 fdiv
SYMBOL voltage 176 -880 R0
WINDOW 123 0 0 Left 0
WINDOW 39 0 0 Left 0
SYMATTR InstName vdd
SYMATTR Value 1.5
SYMBOL VCO_SYM 1232 -992 R0
SYMATTR InstName X6
SYMBOL DIVIDER_SYM 928 -704 M0
SYMATTR InstName X1
SYMBOL voltage -16 -912 R0
WINDOW 0 -54 13 Left 2
WINDOW 3 69 -156 VRight 2
WINDOW 123 0 0 Left 0
WINDOW 39 0 0 Left 0
SYMATTR InstName fref
SYMATTR Value PULSE(0 1.5 0 0.1n 0.1n 5n 10n)
SYMBOL simple_CP_sym 912 -992 R0
SYMATTR InstName X4
SYMBOL pfd_nand 592 -992 R0
SYMATTR InstName X2
TEXT -24 -1216 Left 2 !.include CMOS180.txt
TEXT -24 -1192 Left 2 !.op
TEXT -24 -1168 Left 2 !.tran 20u
TEXT -24 -1248 Left 2 !.options plotwinsize = 0
TEXT 784 -1248 Left 2 ;PLL BLOCK DIAGRAM
