Version 4
SHEET 1 5428 1300
WIRE -96 -832 -96 -896
WIRE 80 -832 80 -896
WIRE 592 -784 592 -816
WIRE 496 -736 448 -736
WIRE 768 -736 688 -736
WIRE -96 -704 -96 -752
WIRE 80 -704 80 -752
FLAG 80 -704 0
FLAG 80 -896 Vdd
IOPIN 80 -896 In
FLAG -96 -704 0
FLAG -96 -896 vcntrl
IOPIN -96 -896 In
FLAG 592 -816 Vdd
IOPIN 592 -816 In
FLAG 448 -736 vcntrl
IOPIN 448 -736 In
FLAG 768 -736 vout
IOPIN 768 -736 Out
SYMBOL voltage 80 -848 R0
WINDOW 123 0 0 Left 0
WINDOW 39 0 0 Left 0
SYMATTR InstName vd
SYMATTR Value 1.5
SYMBOL voltage -96 -848 R0
WINDOW 123 0 0 Left 0
WINDOW 39 0 0 Left 0
SYMATTR InstName vcntrl
SYMATTR Value 0.6
SYMBOL VCO_SYM 592 -736 R0
SYMATTR InstName X6
TEXT 496 -1104 Left 2 !.include CMOS180.txt
TEXT 496 -1080 Left 2 !.op
TEXT 496 -1056 Left 2 !.tran 100n
TEXT 496 -1168 Left 2 !.options plotwinsize = 0
TEXT 488 -1032 Left 2 !;.step param w 0 0.8 0.05
TEXT 488 -1000 Left 2 !;.dc vcntrl 0.3 1.2 0.1
